/*--------------------------------*- C++ -*----------------------------------*\ | ========= | | | \\ / F ield | OpenFOAM: The Open Source CFD Toolbox | | \\ / O peration | Version: 2.4.0 | | \\ / A nd | Web: www.OpenFOAM.org | | \\/ M anipulation | | \*---------------------------------------------------------------------------*/ FoamFile { version 2.0; format ascii; class dictionary; location "system"; object fvSchemes; } // * * * * * * * * * * * * * * * * * * * * * * * * * * * * * * * * * * * * * // ddtSchemes { default backward; } gradSchemes //tidu { default Gauss linear; grad(U) cellLimited Gauss linear 0.5; } divSchemes //sandu { default none; div(phi,U) Gauss linear; div(phi,k) Gauss limitedLinear 1; div(phi,nut) Gauss limitedLinear 1; div((nuEff*dev2(T(grad(U))))) Gauss linear; } laplacianSchemes { default Gauss linear limited corrected 0.5; } interpolationSchemes { default linear; } snGradSchemes { default limited corrected 0.5; } wallDist { method meshWave; } // ************************************************************************* //
