  /*--------------------------------*- C++ -*----------------------------------*\ | ========= | | | \\ / F ield | OpenFOAM: The Open Source CFD Toolbox | | \\ / O peration | Version: 2.4.0 | | \\ / A nd | Web: www.OpenFOAM.org | | \\/ M anipulation | | \*---------------------------------------------------------------------------*/
FoamFile { version 2.0; format ascii; class dictionary; location "system"; object fvSolution; }
// * * * * * * * * * * * * * * * * * * * * * * * * * * * * * * * * * * * * * //
solvers {
  p { solver GAMG; tolerance 1e-04; relTol 0; smoother GaussSeidel; cacheAgglomeration true; nCellsInCoarsestLevel 500; agglomerator faceAreaPair; mergeLevels 1; }
  pFinal { $p; smoother DICGaussSeidel; tolerance 1e-06; relTol 0; cacheAgglomeration true; nCellsInCoarsestLevel 500; agglomerator faceAreaPair; mergeLevels 1; }
  "(U|k|nut)" { solver smoothSolver; smoother symGaussSeidel; tolerance 1e-05; relTol 0; }
  "(U|k|nut)Final" { $U; tolerance 1e-06; relTol 0; }
}
PIMPLE { nOuterCorrectors 5; nCorrectors 2; nNonOrthogonalCorrectors 1; pRefCell 0; pRefValue 0; /* residualControl { "(U|k|p)" { relTol 0; tolerance 0.00001; } } */ }
relaxationFactors { equations { "U.*" 1; "k.*" 1; "nuTilda.*" 1; } } // ************************************************************************* //
