/*--------------------------------*- C++ -*----------------------------------*\ | ========= | | | \\ / F ield | OpenFOAM: The Open Source CFD Toolbox | | \\ / O peration | Version: 5.x | | \\ / A nd | Web: www.OpenFOAM.org | | \\/ M anipulation | | \*---------------------------------------------------------------------------*/ FoamFile { version 2.0; format ascii; class volScalarField; location "0"; object k; } // * * * * * * * * * * * * * * * * * * * * * * * * * * * * * * * * * * * * * //
dimensions [0 2 -2 0 0 0 0]; internalField uniform 0.0001; boundaryField { front { type cyclicAMI; value $internalField; } back { type cyclicAMI; value $internalField; } cylinderwalls { type fixedValue; value uniform 0.0001; } inlet { type fixedValue; value uniform 0.0001; } outlet { type zeroGradient; } } // ************************************************************************* //
